Circuit: * E:\study\20-21_Sem2\AnE\Labs\SVADC APOGEE\2018A3PS0095P.asc

Direct Newton iteration for .op point succeeded.

Date: Sat Mar 20 17:56:58 2021
Total elapsed time: 0.046 seconds.

tnom = 27
temp = 27
method = trap
totiter = 9
traniter = 0
tranpoints = 0
accept = 0
rejected = 0
matrix size = 17
fillins = 0
solver = Normal
Matrix Compiler1:      61 opcodes
Matrix Compiler2: 1.39 KB object code size
